bupropion_R_protonated_8V82_midporeA_seed20240601
     RDKit          3D

 16 16  0  0  0  0  0  0  0  0999 V2000
  138.2450  134.4370  130.9180 C   0  0  0  0  0  0  0  0  0  0  0  0
  137.8730  133.5490  129.7380 C   0  0  1  0  0  0  0  0  0  0  0  0
  138.8300  132.3480  129.7500 N   0  0  0  0  0  0  0  0  0  0  0  0
  139.9960  132.3130  128.7920 C   0  0  0  0  0  0  0  0  0  0  0  0
  139.6070  132.9820  127.4710 C   0  0  0  0  0  0  0  0  0  0  0  0
  140.3110  130.8290  128.5480 C   0  0  0  0  0  0  0  0  0  0  0  0
  141.2000  132.9950  129.4450 C   0  0  0  0  0  0  0  0  0  0  0  0
  136.4500  133.0040  129.8760 C   0  0  0  0  0  0  0  0  0  0  0  0
  136.2710  132.0470  130.6360 O   0  0  0  0  0  0  0  0  0  0  0  0
  135.3160  133.5980  129.1120 C   0  0  0  0  0  0  0  0  0  0  0  0
  134.0390  133.5530  129.6910 C   0  0  0  0  0  0  0  0  0  0  0  0
  132.9380  134.0910  129.0210 C   0  0  0  0  0  0  0  0  0  0  0  0
  133.1030  134.6730  127.7660 C   0  0  0  0  0  0  0  0  0  0  0  0
  134.3690  134.7110  127.1870 C   0  0  0  0  0  0  0  0  0  0  0  0
  134.5780  135.4220  125.6340 Cl  0  0  0  0  0  0  0  0  0  0  0  0
  135.4780  134.1770  127.8480 C   0  0  0  0  0  0  0  0  0  0  0  0
  2  1  1  1
  2  3  1  0
  3  4  1  0
  4  5  1  0
  4  6  1  0
  4  7  1  0
  2  8  1  0
  8  9  2  0
  8 10  1  0
 10 11  2  0
 11 12  1  0
 12 13  2  0
 13 14  1  0
 14 15  1  0
 14 16  2  0
 16 10  1  0
M  CHG  1   3   1
M  END
>  <enantiomer_intended>  (1) 
R

>  <enantiomer_from_3D>  (1) 
R

>  <form>  (1) 
protonated

>  <formal_charge>  (1) 
1

>  <receptor>  (1) 
8V82

>  <receptor_state>  (1) 
activated

>  <search_region>  (1) 
midporeA

>  <seed>  (1) 
20240601

>  <vina_score_kcal_per_mol>  (1) 
-5.606

>  <location_class>  (1) 
pore_lumen

>  <centroid_axial_A>  (1) 
-16.64

>  <centroid_radial_A>  (1) 
4.87

>  <local_pore_radius_A>  (1) 
7.69

>  <radial_fraction>  (1) 
0.634

>  <m2_span_contact_fraction>  (1) 
1.0

>  <contacts_uniprot>  (1) 
L270; S271; T273; V274

>  <contacts_chain_resid>  (1) 
C:LEU247*; C:THR250*; D:LEU247*; D:SER248*; D:THR250*; D:VAL251*; E:SER248*; E:VAL251*

>  <min_receptor_dist_A>  (1) 
2.79

>  <n_clashes_below_2p2A>  (1) 
0

>  <engine>  (1) 
AutoDock Vina 1.2.7

>  <caveat>  (1) 
modeled docking pose, NOT an experimental structure; score is not Ki/IC50/occupancy

$$$$
bupropion_R_protonated_8V82_midporeA_seed20240602
     RDKit          3D

 16 16  0  0  0  0  0  0  0  0999 V2000
  141.6670  137.2030  130.8980 C   0  0  0  0  0  0  0  0  0  0  0  0
  142.4000  136.5400  129.7390 C   0  0  1  0  0  0  0  0  0  0  0  0
  143.8390  137.0740  129.7430 N   0  0  0  0  0  0  0  0  0  0  0  0
  144.2300  138.1740  128.7850 C   0  0  0  0  0  0  0  0  0  0  0  0
  143.4650  138.0160  127.4690 C   0  0  0  0  0  0  0  0  0  0  0  0
  145.7360  138.0120  128.5310 C   0  0  0  0  0  0  0  0  0  0  0  0
  143.9610  139.5290  129.4430 C   0  0  0  0  0  0  0  0  0  0  0  0
  142.4740  135.0220  129.9220 C   0  0  0  0  0  0  0  0  0  0  0  0
  143.3140  134.5770  130.7090 O   0  0  0  0  0  0  0  0  0  0  0  0
  141.5700  134.1070  129.1670 C   0  0  0  0  0  0  0  0  0  0  0  0
  141.2140  132.8910  129.7700 C   0  0  0  0  0  0  0  0  0  0  0  0
  140.3740  131.9930  129.1100 C   0  0  0  0  0  0  0  0  0  0  0  0
  139.8860  132.2990  127.8410 C   0  0  0  0  0  0  0  0  0  0  0  0
  140.2440  133.5030  127.2400 C   0  0  0  0  0  0  0  0  0  0  0  0
  139.6500  133.8840  125.6710 Cl  0  0  0  0  0  0  0  0  0  0  0  0
  141.0840  134.4090  127.8910 C   0  0  0  0  0  0  0  0  0  0  0  0
  2  1  1  1
  2  3  1  0
  3  4  1  0
  4  5  1  0
  4  6  1  0
  4  7  1  0
  2  8  1  0
  8  9  2  0
  8 10  1  0
 10 11  2  0
 11 12  1  0
 12 13  2  0
 13 14  1  0
 14 15  1  0
 14 16  2  0
 16 10  1  0
M  CHG  1   3   1
M  END
>  <enantiomer_intended>  (2) 
R

>  <enantiomer_from_3D>  (2) 
R

>  <form>  (2) 
protonated

>  <formal_charge>  (2) 
1

>  <receptor>  (2) 
8V82

>  <receptor_state>  (2) 
activated

>  <search_region>  (2) 
midporeA

>  <seed>  (2) 
20240602

>  <vina_score_kcal_per_mol>  (2) 
-5.613

>  <location_class>  (2) 
pore_lumen

>  <centroid_axial_A>  (2) 
-16.61

>  <centroid_radial_A>  (2) 
4.87

>  <local_pore_radius_A>  (2) 
7.69

>  <radial_fraction>  (2) 
0.633

>  <m2_span_contact_fraction>  (2) 
1.0

>  <contacts_uniprot>  (2) 
L270; S271; T273; V274

>  <contacts_chain_resid>  (2) 
A:SER248*; A:VAL251*; D:LEU247*; D:THR250*; E:LEU247*; E:SER248*; E:THR250*; E:VAL251*

>  <min_receptor_dist_A>  (2) 
2.79

>  <n_clashes_below_2p2A>  (2) 
0

>  <engine>  (2) 
AutoDock Vina 1.2.7

>  <caveat>  (2) 
modeled docking pose, NOT an experimental structure; score is not Ki/IC50/occupancy

$$$$
bupropion_R_protonated_8V82_midporeA_seed20240603
     RDKit          3D

 16 16  0  0  0  0  0  0  0  0999 V2000
  138.3170  134.4710  130.8470 C   0  0  0  0  0  0  0  0  0  0  0  0
  137.9090  133.5460  129.7080 C   0  0  1  0  0  0  0  0  0  0  0  0
  138.8570  132.3390  129.7370 N   0  0  0  0  0  0  0  0  0  0  0  0
  139.9770  132.2450  128.7280 C   0  0  0  0  0  0  0  0  0  0  0  0
  140.3250  130.7770  128.4710 C   0  0  0  0  0  0  0  0  0  0  0  0
  141.1830  132.9620  129.3530 C   0  0  0  0  0  0  0  0  0  0  0  0
  139.5550  132.9660  127.4460 C   0  0  0  0  0  0  0  0  0  0  0  0
  136.4860  133.0170  129.9030 C   0  0  0  0  0  0  0  0  0  0  0  0
  136.3210  132.0890  130.7000 O   0  0  0  0  0  0  0  0  0  0  0  0
  135.3360  133.5920  129.1470 C   0  0  0  0  0  0  0  0  0  0  0  0
  134.0700  133.5580  129.7510 C   0  0  0  0  0  0  0  0  0  0  0  0
  132.9560  134.0790  129.0910 C   0  0  0  0  0  0  0  0  0  0  0  0
  133.0960  134.6340  127.8200 C   0  0  0  0  0  0  0  0  0  0  0  0
  134.3510  134.6620  127.2170 C   0  0  0  0  0  0  0  0  0  0  0  0
  134.5290  135.3390  125.6460 Cl  0  0  0  0  0  0  0  0  0  0  0  0
  135.4730  134.1440  127.8690 C   0  0  0  0  0  0  0  0  0  0  0  0
  2  1  1  1
  2  3  1  0
  3  4  1  0
  4  5  1  0
  4  6  1  0
  4  7  1  0
  2  8  1  0
  8  9  2  0
  8 10  1  0
 10 11  2  0
 11 12  1  0
 12 13  2  0
 13 14  1  0
 14 15  1  0
 14 16  2  0
 16 10  1  0
M  CHG  1   3   1
M  END
>  <enantiomer_intended>  (3) 
R

>  <enantiomer_from_3D>  (3) 
R

>  <form>  (3) 
protonated

>  <formal_charge>  (3) 
1

>  <receptor>  (3) 
8V82

>  <receptor_state>  (3) 
activated

>  <search_region>  (3) 
midporeA

>  <seed>  (3) 
20240603

>  <vina_score_kcal_per_mol>  (3) 
-5.622

>  <location_class>  (3) 
pore_lumen

>  <centroid_axial_A>  (3) 
-16.64

>  <centroid_radial_A>  (3) 
4.89

>  <local_pore_radius_A>  (3) 
7.69

>  <radial_fraction>  (3) 
0.636

>  <m2_span_contact_fraction>  (3) 
1.0

>  <contacts_uniprot>  (3) 
L270; S271; T273; V274

>  <contacts_chain_resid>  (3) 
C:LEU247*; C:THR250*; D:LEU247*; D:SER248*; D:THR250*; D:VAL251*; E:SER248*; E:VAL251*

>  <min_receptor_dist_A>  (3) 
2.81

>  <n_clashes_below_2p2A>  (3) 
0

>  <engine>  (3) 
AutoDock Vina 1.2.7

>  <caveat>  (3) 
modeled docking pose, NOT an experimental structure; score is not Ki/IC50/occupancy

$$$$
bupropion_S_protonated_8V82_midporeA_seed20240601
     RDKit          3D

 16 16  0  0  0  0  0  0  0  0999 V2000
  135.3170  140.7880  117.6720 C   0  0  0  0  0  0  0  0  0  0  0  0
  136.4300  139.8770  118.1680 C   0  0  2  0  0  0  0  0  0  0  0  0
  137.6290  140.0640  117.2270 N   0  0  0  0  0  0  0  0  0  0  0  0
  138.9790  140.4230  117.7990 C   0  0  0  0  0  0  0  0  0  0  0  0
  139.3910  141.8020  117.2790 C   0  0  0  0  0  0  0  0  0  0  0  0
  139.9620  139.3610  117.2870 C   0  0  0  0  0  0  0  0  0  0  0  0
  138.9250  140.3820  119.3290 C   0  0  0  0  0  0  0  0  0  0  0  0
  136.0180  138.4040  118.1000 C   0  0  0  0  0  0  0  0  0  0  0  0
  134.9070  138.1390  117.6280 O   0  0  0  0  0  0  0  0  0  0  0  0
  136.9280  137.3220  118.5720 C   0  0  0  0  0  0  0  0  0  0  0  0
  137.1020  137.1690  119.9560 C   0  0  0  0  0  0  0  0  0  0  0  0
  137.9400  136.1710  120.4580 C   0  0  0  0  0  0  0  0  0  0  0  0
  138.6060  135.3150  119.5820 C   0  0  0  0  0  0  0  0  0  0  0  0
  138.4280  135.4620  118.2100 C   0  0  0  0  0  0  0  0  0  0  0  0
  139.2420  134.4060  117.1230 Cl  0  0  0  0  0  0  0  0  0  0  0  0
  137.5920  136.4580  117.6960 C   0  0  0  0  0  0  0  0  0  0  0  0
  2  1  1  6
  2  3  1  0
  3  4  1  0
  4  5  1  0
  4  6  1  0
  4  7  1  0
  2  8  1  0
  8  9  2  0
  8 10  1  0
 10 11  2  0
 11 12  1  0
 12 13  2  0
 13 14  1  0
 14 15  1  0
 14 16  2  0
 16 10  1  0
M  CHG  1   3   1
M  END
>  <enantiomer_intended>  (4) 
S

>  <enantiomer_from_3D>  (4) 
S

>  <form>  (4) 
protonated

>  <formal_charge>  (4) 
1

>  <receptor>  (4) 
8V82

>  <receptor_state>  (4) 
activated

>  <search_region>  (4) 
midporeA

>  <seed>  (4) 
20240601

>  <vina_score_kcal_per_mol>  (4) 
-5.218

>  <location_class>  (4) 
pore_lumen

>  <centroid_axial_A>  (4) 
-27.23

>  <centroid_radial_A>  (4) 
0.42

>  <local_pore_radius_A>  (4) 
5.37

>  <radial_fraction>  (4) 
0.078

>  <m2_span_contact_fraction>  (4) 
1.0

>  <contacts_uniprot>  (4) 
I266; S263; T267

>  <contacts_chain_resid>  (4) 
A:SER240*; A:ILE243*; A:THR244*; B:SER240*; B:ILE243*; B:THR244*; C:SER240*; C:THR244*; D:SER240*; D:THR244*; E:SER240*; E:THR244*

>  <min_receptor_dist_A>  (4) 
2.92

>  <n_clashes_below_2p2A>  (4) 
0

>  <engine>  (4) 
AutoDock Vina 1.2.7

>  <caveat>  (4) 
modeled docking pose, NOT an experimental structure; score is not Ki/IC50/occupancy

$$$$
bupropion_S_protonated_8V82_midporeA_seed20240602
     RDKit          3D

 16 16  0  0  0  0  0  0  0  0999 V2000
  141.9260  137.5630  117.6710 C   0  0  0  0  0  0  0  0  0  0  0  0
  140.4900  137.6480  118.1660 C   0  0  2  0  0  0  0  0  0  0  0  0
  139.6270  136.8040  117.2170 N   0  0  0  0  0  0  0  0  0  0  0  0
  138.7450  135.7150  117.7780 C   0  0  0  0  0  0  0  0  0  0  0  0
  139.2210  134.3620  117.2430 C   0  0  0  0  0  0  0  0  0  0  0  0
  137.3250  136.0030  117.2700 C   0  0  0  0  0  0  0  0  0  0  0  0
  138.7660  135.7630  119.3080 C   0  0  0  0  0  0  0  0  0  0  0  0
  139.9650  139.0850  118.1100 C   0  0  0  0  0  0  0  0  0  0  0  0
  140.7210  139.9570  117.6710 O   0  0  0  0  0  0  0  0  0  0  0  0
  138.5830  139.4220  118.5560 C   0  0  0  0  0  0  0  0  0  0  0  0
  138.3200  139.4220  119.9340 C   0  0  0  0  0  0  0  0  0  0  0  0
  137.0450  139.7330  120.4120 C   0  0  0  0  0  0  0  0  0  0  0  0
  136.0250  140.0520  119.5180 C   0  0  0  0  0  0  0  0  0  0  0  0
  136.2870  140.0590  118.1510 C   0  0  0  0  0  0  0  0  0  0  0  0
  135.0340  140.4580  117.0420 Cl  0  0  0  0  0  0  0  0  0  0  0  0
  137.5590  139.7500  117.6610 C   0  0  0  0  0  0  0  0  0  0  0  0
  2  1  1  6
  2  3  1  0
  3  4  1  0
  4  5  1  0
  4  6  1  0
  4  7  1  0
  2  8  1  0
  8  9  2  0
  8 10  1  0
 10 11  2  0
 11 12  1  0
 12 13  2  0
 13 14  1  0
 14 15  1  0
 14 16  2  0
 16 10  1  0
M  CHG  1   3   1
M  END
>  <enantiomer_intended>  (5) 
S

>  <enantiomer_from_3D>  (5) 
S

>  <form>  (5) 
protonated

>  <formal_charge>  (5) 
1

>  <receptor>  (5) 
8V82

>  <receptor_state>  (5) 
activated

>  <search_region>  (5) 
midporeA

>  <seed>  (5) 
20240602

>  <vina_score_kcal_per_mol>  (5) 
-5.224

>  <location_class>  (5) 
pore_lumen

>  <centroid_axial_A>  (5) 
-27.25

>  <centroid_radial_A>  (5) 
0.39

>  <local_pore_radius_A>  (5) 
5.37

>  <radial_fraction>  (5) 
0.072

>  <m2_span_contact_fraction>  (5) 
1.0

>  <contacts_uniprot>  (5) 
I266; S263; T267

>  <contacts_chain_resid>  (5) 
A:SER240*; A:THR244*; B:SER240*; B:THR244*; C:SER240*; C:THR244*; D:SER240*; D:ILE243*; D:THR244*; E:SER240*; E:ILE243*; E:THR244*

>  <min_receptor_dist_A>  (5) 
2.89

>  <n_clashes_below_2p2A>  (5) 
0

>  <engine>  (5) 
AutoDock Vina 1.2.7

>  <caveat>  (5) 
modeled docking pose, NOT an experimental structure; score is not Ki/IC50/occupancy

$$$$
bupropion_S_protonated_8V82_midporeA_seed20240603
     RDKit          3D

 16 16  0  0  0  0  0  0  0  0999 V2000
  130.2320  145.3830  133.0380 C   0  0  0  0  0  0  0  0  0  0  0  0
  129.4340  146.6780  132.9890 C   0  0  2  0  0  0  0  0  0  0  0  0
  128.3030  146.5590  134.0210 N   0  0  0  0  0  0  0  0  0  0  0  0
  128.4660  147.1890  135.3830 C   0  0  0  0  0  0  0  0  0  0  0  0
  129.9390  147.1210  135.7920 C   0  0  0  0  0  0  0  0  0  0  0  0
  127.6200  146.3500  136.3520 C   0  0  0  0  0  0  0  0  0  0  0  0
  127.9460  148.6290  135.3580 C   0  0  0  0  0  0  0  0  0  0  0  0
  128.7840  146.8810  131.6180 C   0  0  0  0  0  0  0  0  0  0  0  0
  128.7320  145.9110  130.8560 O   0  0  0  0  0  0  0  0  0  0  0  0
  128.2210  148.2020  131.2160 C   0  0  0  0  0  0  0  0  0  0  0  0
  128.4560  149.2990  132.0570 C   0  0  0  0  0  0  0  0  0  0  0  0
  127.9550  150.5620  131.7310 C   0  0  0  0  0  0  0  0  0  0  0  0
  127.2210  150.7380  130.5590 C   0  0  0  0  0  0  0  0  0  0  0  0
  126.9940  149.6510  129.7200 C   0  0  0  0  0  0  0  0  0  0  0  0
  126.0950  149.8630  128.2690 Cl  0  0  0  0  0  0  0  0  0  0  0  0
  127.4910  148.3830  130.0370 C   0  0  0  0  0  0  0  0  0  0  0  0
  2  1  1  6
  2  3  1  0
  3  4  1  0
  4  5  1  0
  4  6  1  0
  4  7  1  0
  2  8  1  0
  8  9  2  0
  8 10  1  0
 10 11  2  0
 11 12  1  0
 12 13  2  0
 13 14  1  0
 14 15  1  0
 14 16  2  0
 16 10  1  0
M  CHG  1   3   1
M  END
>  <enantiomer_intended>  (6) 
S

>  <enantiomer_from_3D>  (6) 
S

>  <form>  (6) 
protonated

>  <formal_charge>  (6) 
1

>  <receptor>  (6) 
8V82

>  <receptor_state>  (6) 
activated

>  <search_region>  (6) 
midporeA

>  <seed>  (6) 
20240603

>  <vina_score_kcal_per_mol>  (6) 
-5.977

>  <location_class>  (6) 
lateral_interface

>  <centroid_axial_A>  (6) 
-13.04

>  <centroid_radial_A>  (6) 
13.95

>  <local_pore_radius_A>  (6) 
7.41

>  <radial_fraction>  (6) 
1.881

>  <m2_span_contact_fraction>  (6) 
0.556

>  <contacts_uniprot>  (6) 
F275; I244; L277; L278; M276; M301; N236; P240; T273

>  <contacts_chain_resid>  (6) 
B:THR250*; B:MET253*; B:LEU254*; B:MET278; C:ASN213; C:PRO217; C:ILE221; C:PHE252*; C:LEU255*

>  <min_receptor_dist_A>  (6) 
2.86

>  <n_clashes_below_2p2A>  (6) 
0

>  <engine>  (6) 
AutoDock Vina 1.2.7

>  <caveat>  (6) 
modeled docking pose, NOT an experimental structure; score is not Ki/IC50/occupancy

$$$$
bupropion_R_protonated_8V8A_midporeA_seed20240601
     RDKit          3D

 16 16  0  0  0  0  0  0  0  0999 V2000
  135.9410  136.5280  125.6020 C   0  0  0  0  0  0  0  0  0  0  0  0
  135.0220  136.1320  124.4540 C   0  0  1  0  0  0  0  0  0  0  0  0
  134.6790  134.6460  124.6340 N   0  0  0  0  0  0  0  0  0  0  0  0
  135.2750  133.6230  123.6970 C   0  0  0  0  0  0  0  0  0  0  0  0
  136.7140  133.3100  124.1130 C   0  0  0  0  0  0  0  0  0  0  0  0
  135.2670  134.2600  122.3000 C   0  0  0  0  0  0  0  0  0  0  0  0
  134.3940  132.3720  123.7000 C   0  0  0  0  0  0  0  0  0  0  0  0
  133.7080  136.9150  124.4960 C   0  0  0  0  0  0  0  0  0  0  0  0
  132.7910  136.4640  125.1880 O   0  0  0  0  0  0  0  0  0  0  0  0
  133.5330  138.1750  123.7180 C   0  0  0  0  0  0  0  0  0  0  0  0
  132.7530  139.1940  124.2860 C   0  0  0  0  0  0  0  0  0  0  0  0
  132.5520  140.3950  123.6030 C   0  0  0  0  0  0  0  0  0  0  0  0
  133.1220  140.5860  122.3460 C   0  0  0  0  0  0  0  0  0  0  0  0
  133.8900  139.5720  121.7790 C   0  0  0  0  0  0  0  0  0  0  0  0
  134.5910  139.7990  120.2240 Cl  0  0  0  0  0  0  0  0  0  0  0  0
  134.0990  138.3660  122.4530 C   0  0  0  0  0  0  0  0  0  0  0  0
  2  1  1  1
  2  3  1  0
  3  4  1  0
  4  5  1  0
  4  6  1  0
  4  7  1  0
  2  8  1  0
  8  9  2  0
  8 10  1  0
 10 11  2  0
 11 12  1  0
 12 13  2  0
 13 14  1  0
 14 15  1  0
 14 16  2  0
 16 10  1  0
M  CHG  1   3   1
M  END
>  <enantiomer_intended>  (7) 
R

>  <enantiomer_from_3D>  (7) 
R

>  <form>  (7) 
protonated

>  <formal_charge>  (7) 
1

>  <receptor>  (7) 
8V8A

>  <receptor_state>  (7) 
desensitized

>  <search_region>  (7) 
midporeA

>  <seed>  (7) 
20240601

>  <vina_score_kcal_per_mol>  (7) 
-5.550

>  <location_class>  (7) 
pore_lumen

>  <centroid_axial_A>  (7) 
-16.65

>  <centroid_radial_A>  (7) 
4.65

>  <local_pore_radius_A>  (7) 
7.77

>  <radial_fraction>  (7) 
0.599

>  <m2_span_contact_fraction>  (7) 
1.0

>  <contacts_uniprot>  (7) 
L270; S271; T273; V274

>  <contacts_chain_resid>  (7) 
B:LEU247*; B:THR250*; C:LEU247*; C:SER248*; C:THR250*; C:VAL251*; D:SER248*; D:VAL251*

>  <min_receptor_dist_A>  (7) 
2.71

>  <n_clashes_below_2p2A>  (7) 
0

>  <engine>  (7) 
AutoDock Vina 1.2.7

>  <caveat>  (7) 
modeled docking pose, NOT an experimental structure; score is not Ki/IC50/occupancy

$$$$
bupropion_R_protonated_8V8A_midporeA_seed20240602
     RDKit          3D

 16 16  0  0  0  0  0  0  0  0999 V2000
  135.9930  136.5810  125.4650 C   0  0  0  0  0  0  0  0  0  0  0  0
  135.0130  136.1570  124.3790 C   0  0  1  0  0  0  0  0  0  0  0  0
  134.6850  134.6760  124.6120 N   0  0  0  0  0  0  0  0  0  0  0  0
  135.2870  133.6260  123.7090 C   0  0  0  0  0  0  0  0  0  0  0  0
  136.6860  133.2530  124.2040 C   0  0  0  0  0  0  0  0  0  0  0  0
  135.3830  134.2580  122.3130 C   0  0  0  0  0  0  0  0  0  0  0  0
  134.3550  132.4130  123.6640 C   0  0  0  0  0  0  0  0  0  0  0  0
  133.7020  136.9390  124.4740 C   0  0  0  0  0  0  0  0  0  0  0  0
  132.8040  136.4740  125.1820 O   0  0  0  0  0  0  0  0  0  0  0  0
  133.5060  138.2170  123.7290 C   0  0  0  0  0  0  0  0  0  0  0  0
  132.7200  139.2120  124.3290 C   0  0  0  0  0  0  0  0  0  0  0  0
  132.4990  140.4270  123.6780 C   0  0  0  0  0  0  0  0  0  0  0  0
  133.0570  140.6560  122.4220 C   0  0  0  0  0  0  0  0  0  0  0  0
  133.8310  139.6660  121.8230 C   0  0  0  0  0  0  0  0  0  0  0  0
  134.5170  139.9390  120.2690 Cl  0  0  0  0  0  0  0  0  0  0  0  0
  134.0590  138.4460  122.4650 C   0  0  0  0  0  0  0  0  0  0  0  0
  2  1  1  1
  2  3  1  0
  3  4  1  0
  4  5  1  0
  4  6  1  0
  4  7  1  0
  2  8  1  0
  8  9  2  0
  8 10  1  0
 10 11  2  0
 11 12  1  0
 12 13  2  0
 13 14  1  0
 14 15  1  0
 14 16  2  0
 16 10  1  0
M  CHG  1   3   1
M  END
>  <enantiomer_intended>  (8) 
R

>  <enantiomer_from_3D>  (8) 
R

>  <form>  (8) 
protonated

>  <formal_charge>  (8) 
1

>  <receptor>  (8) 
8V8A

>  <receptor_state>  (8) 
desensitized

>  <search_region>  (8) 
midporeA

>  <seed>  (8) 
20240602

>  <vina_score_kcal_per_mol>  (8) 
-5.550

>  <location_class>  (8) 
pore_lumen

>  <centroid_axial_A>  (8) 
-16.64

>  <centroid_radial_A>  (8) 
4.65

>  <local_pore_radius_A>  (8) 
7.77

>  <radial_fraction>  (8) 
0.599

>  <m2_span_contact_fraction>  (8) 
1.0

>  <contacts_uniprot>  (8) 
L270; S271; T273; V274

>  <contacts_chain_resid>  (8) 
B:LEU247*; B:THR250*; C:LEU247*; C:SER248*; C:THR250*; C:VAL251*; D:SER248*; D:VAL251*

>  <min_receptor_dist_A>  (8) 
2.72

>  <n_clashes_below_2p2A>  (8) 
0

>  <engine>  (8) 
AutoDock Vina 1.2.7

>  <caveat>  (8) 
modeled docking pose, NOT an experimental structure; score is not Ki/IC50/occupancy

$$$$
bupropion_R_protonated_8V8A_midporeA_seed20240603
     RDKit          3D

 16 16  0  0  0  0  0  0  0  0999 V2000
  135.9200  136.5560  125.6130 C   0  0  0  0  0  0  0  0  0  0  0  0
  135.0310  136.1650  124.4410 C   0  0  1  0  0  0  0  0  0  0  0  0
  134.6850  134.6780  124.6060 N   0  0  0  0  0  0  0  0  0  0  0  0
  135.2770  133.6630  123.6590 C   0  0  0  0  0  0  0  0  0  0  0  0
  135.3340  134.2410  122.2430 C   0  0  0  0  0  0  0  0  0  0  0  0
  134.3390  132.4470  123.6840 C   0  0  0  0  0  0  0  0  0  0  0  0
  136.6630  133.2560  124.1660 C   0  0  0  0  0  0  0  0  0  0  0  0
  133.7160  136.9460  124.4520 C   0  0  0  0  0  0  0  0  0  0  0  0
  132.7870  136.5020  125.1330 O   0  0  0  0  0  0  0  0  0  0  0  0
  133.5530  138.1980  123.6580 C   0  0  0  0  0  0  0  0  0  0  0  0
  132.7860  139.2330  124.2140 C   0  0  0  0  0  0  0  0  0  0  0  0
  132.5960  140.4270  123.5170 C   0  0  0  0  0  0  0  0  0  0  0  0
  133.1650  140.5950  122.2560 C   0  0  0  0  0  0  0  0  0  0  0  0
  133.9210  139.5670  121.7000 C   0  0  0  0  0  0  0  0  0  0  0  0
  134.6220  139.7650  120.1420 Cl  0  0  0  0  0  0  0  0  0  0  0  0
  134.1180  138.3670  122.3900 C   0  0  0  0  0  0  0  0  0  0  0  0
  2  1  1  1
  2  3  1  0
  3  4  1  0
  4  5  1  0
  4  6  1  0
  4  7  1  0
  2  8  1  0
  8  9  2  0
  8 10  1  0
 10 11  2  0
 11 12  1  0
 12 13  2  0
 13 14  1  0
 14 15  1  0
 14 16  2  0
 16 10  1  0
M  CHG  1   3   1
M  END
>  <enantiomer_intended>  (9) 
R

>  <enantiomer_from_3D>  (9) 
R

>  <form>  (9) 
protonated

>  <formal_charge>  (9) 
1

>  <receptor>  (9) 
8V8A

>  <receptor_state>  (9) 
desensitized

>  <search_region>  (9) 
midporeA

>  <seed>  (9) 
20240603

>  <vina_score_kcal_per_mol>  (9) 
-5.528

>  <location_class>  (9) 
pore_lumen

>  <centroid_axial_A>  (9) 
-16.69

>  <centroid_radial_A>  (9) 
4.64

>  <local_pore_radius_A>  (9) 
7.77

>  <radial_fraction>  (9) 
0.596

>  <m2_span_contact_fraction>  (9) 
1.0

>  <contacts_uniprot>  (9) 
L270; S271; T273; V274

>  <contacts_chain_resid>  (9) 
B:LEU247*; B:THR250*; C:LEU247*; C:SER248*; C:THR250*; C:VAL251*; D:SER248*; D:VAL251*

>  <min_receptor_dist_A>  (9) 
2.73

>  <n_clashes_below_2p2A>  (9) 
0

>  <engine>  (9) 
AutoDock Vina 1.2.7

>  <caveat>  (9) 
modeled docking pose, NOT an experimental structure; score is not Ki/IC50/occupancy

$$$$
bupropion_S_protonated_8V8A_midporeA_seed20240601
     RDKit          3D

 16 16  0  0  0  0  0  0  0  0999 V2000
  136.1440  135.7280  112.0080 C   0  0  0  0  0  0  0  0  0  0  0  0
  137.4490  136.4830  111.7990 C   0  0  2  0  0  0  0  0  0  0  0  0
  138.0370  136.7750  113.1870 N   0  0  0  0  0  0  0  0  0  0  0  0
  139.5350  136.7950  113.3740 C   0  0  0  0  0  0  0  0  0  0  0  0
  140.1630  135.7230  112.4810 C   0  0  0  0  0  0  0  0  0  0  0  0
  139.7910  136.4560  114.8490 C   0  0  0  0  0  0  0  0  0  0  0  0
  140.0810  138.1900  113.0620 C   0  0  0  0  0  0  0  0  0  0  0  0
  137.2100  137.8290  111.1090 C   0  0  0  0  0  0  0  0  0  0  0  0
  136.4600  138.6360  111.6670 O   0  0  0  0  0  0  0  0  0  0  0  0
  137.8680  138.1630  109.8140 C   0  0  0  0  0  0  0  0  0  0  0  0
  139.0000  137.4210  109.4420 C   0  0  0  0  0  0  0  0  0  0  0  0
  139.6570  137.6870  108.2390 C   0  0  0  0  0  0  0  0  0  0  0  0
  139.1860  138.6920  107.3960 C   0  0  0  0  0  0  0  0  0  0  0  0
  138.0590  139.4230  107.7600 C   0  0  0  0  0  0  0  0  0  0  0  0
  137.4690  140.6600  106.7210 Cl  0  0  0  0  0  0  0  0  0  0  0  0
  137.3930  139.1660  108.9620 C   0  0  0  0  0  0  0  0  0  0  0  0
  2  1  1  1
  2  3  1  0
  3  4  1  0
  4  5  1  0
  4  6  1  0
  4  7  1  0
  2  8  1  0
  8  9  2  0
  8 10  1  0
 10 11  2  0
 11 12  1  0
 12 13  2  0
 13 14  1  0
 14 15  1  0
 14 16  2  0
 16 10  1  0
M  CHG  1   3   1
M  END
>  <enantiomer_intended>  (10) 
S

>  <enantiomer_from_3D>  (10) 
S

>  <form>  (10) 
protonated

>  <formal_charge>  (10) 
1

>  <receptor>  (10) 
8V8A

>  <receptor_state>  (10) 
desensitized

>  <search_region>  (10) 
midporeA

>  <seed>  (10) 
20240601

>  <vina_score_kcal_per_mol>  (10) 
-5.296

>  <location_class>  (10) 
pore_lumen

>  <centroid_axial_A>  (10) 
-29.44

>  <centroid_radial_A>  (10) 
0.90

>  <local_pore_radius_A>  (10) 
4.78

>  <radial_fraction>  (10) 
0.188

>  <m2_span_contact_fraction>  (10) 
0.909

>  <contacts_uniprot>  (10) 
E260; G259; I266; S263; T267

>  <contacts_chain_resid>  (10) 
B:GLY236; B:GLU237*; B:SER240*; C:GLU237*; C:SER240*; C:ILE243*; C:THR244*; D:SER240*; D:THR244*; E:SER240*; E:THR244*

>  <min_receptor_dist_A>  (10) 
3.35

>  <n_clashes_below_2p2A>  (10) 
0

>  <engine>  (10) 
AutoDock Vina 1.2.7

>  <caveat>  (10) 
modeled docking pose, NOT an experimental structure; score is not Ki/IC50/occupancy

$$$$
bupropion_S_protonated_8V8A_midporeA_seed20240602
     RDKit          3D

 16 16  0  0  0  0  0  0  0  0999 V2000
  136.1870  135.7600  111.9680 C   0  0  0  0  0  0  0  0  0  0  0  0
  137.4950  136.5040  111.7450 C   0  0  2  0  0  0  0  0  0  0  0  0
  138.0970  136.7980  113.1260 N   0  0  0  0  0  0  0  0  0  0  0  0
  139.5920  136.7230  113.3210 C   0  0  0  0  0  0  0  0  0  0  0  0
  139.8890  136.4220  114.7920 C   0  0  0  0  0  0  0  0  0  0  0  0
  140.1460  138.1070  112.9540 C   0  0  0  0  0  0  0  0  0  0  0  0
  140.1870  135.6640  112.3900 C   0  0  0  0  0  0  0  0  0  0  0  0
  137.2600  137.8480  111.0500 C   0  0  0  0  0  0  0  0  0  0  0  0
  136.5570  138.6800  111.6310 O   0  0  0  0  0  0  0  0  0  0  0  0
  137.8690  138.1510  109.7240 C   0  0  0  0  0  0  0  0  0  0  0  0
  138.9650  137.3770  109.3120 C   0  0  0  0  0  0  0  0  0  0  0  0
  139.5750  137.6130  108.0780 C   0  0  0  0  0  0  0  0  0  0  0  0
  139.0910  138.6190  107.2430 C   0  0  0  0  0  0  0  0  0  0  0  0
  137.9990  139.3820  107.6480 C   0  0  0  0  0  0  0  0  0  0  0  0
  137.3940  140.6210  106.6200 Cl  0  0  0  0  0  0  0  0  0  0  0  0
  137.3810  139.1550  108.8810 C   0  0  0  0  0  0  0  0  0  0  0  0
  2  1  1  1
  2  3  1  0
  3  4  1  0
  4  5  1  0
  4  6  1  0
  4  7  1  0
  2  8  1  0
  8  9  2  0
  8 10  1  0
 10 11  2  0
 11 12  1  0
 12 13  2  0
 13 14  1  0
 14 15  1  0
 14 16  2  0
 16 10  1  0
M  CHG  1   3   1
M  END
>  <enantiomer_intended>  (11) 
S

>  <enantiomer_from_3D>  (11) 
S

>  <form>  (11) 
protonated

>  <formal_charge>  (11) 
1

>  <receptor>  (11) 
8V8A

>  <receptor_state>  (11) 
desensitized

>  <search_region>  (11) 
midporeA

>  <seed>  (11) 
20240602

>  <vina_score_kcal_per_mol>  (11) 
-5.283

>  <location_class>  (11) 
pore_lumen

>  <centroid_axial_A>  (11) 
-29.53

>  <centroid_radial_A>  (11) 
0.92

>  <local_pore_radius_A>  (11) 
4.78

>  <radial_fraction>  (11) 
0.192

>  <m2_span_contact_fraction>  (11) 
0.909

>  <contacts_uniprot>  (11) 
E260; G259; I266; S263; T267

>  <contacts_chain_resid>  (11) 
B:GLY236; B:GLU237*; B:SER240*; C:GLU237*; C:SER240*; C:ILE243*; C:THR244*; D:SER240*; D:THR244*; E:SER240*; E:THR244*

>  <min_receptor_dist_A>  (11) 
3.39

>  <n_clashes_below_2p2A>  (11) 
0

>  <engine>  (11) 
AutoDock Vina 1.2.7

>  <caveat>  (11) 
modeled docking pose, NOT an experimental structure; score is not Ki/IC50/occupancy

$$$$
bupropion_S_protonated_8V8A_midporeA_seed20240603
     RDKit          3D

 16 16  0  0  0  0  0  0  0  0999 V2000
  140.6580  135.4700  111.9900 C   0  0  0  0  0  0  0  0  0  0  0  0
  140.2770  136.9280  111.7790 C   0  0  2  0  0  0  0  0  0  0  0  0
  140.1410  137.5710  113.1670 N   0  0  0  0  0  0  0  0  0  0  0  0
  140.6860  138.9590  113.4040 C   0  0  0  0  0  0  0  0  0  0  0  0
  141.0880  139.0930  114.8740 C   0  0  0  0  0  0  0  0  0  0  0  0
  139.5420  139.9320  113.0880 C   0  0  0  0  0  0  0  0  0  0  0  0
  141.8640  139.2240  112.4630 C   0  0  0  0  0  0  0  0  0  0  0  0
  138.9210  137.0540  111.0800 C   0  0  0  0  0  0  0  0  0  0  0  0
  137.9410  136.5390  111.6280 O   0  0  0  0  0  0  0  0  0  0  0  0
  138.7800  137.7840  109.7880 C   0  0  0  0  0  0  0  0  0  0  0  0
  139.8170  138.6500  109.4080 C   0  0  0  0  0  0  0  0  0  0  0  0
  139.7430  139.3590  108.2070 C   0  0  0  0  0  0  0  0  0  0  0  0
  138.6350  139.2050  107.3740 C   0  0  0  0  0  0  0  0  0  0  0  0
  137.6100  138.3410  107.7480 C   0  0  0  0  0  0  0  0  0  0  0  0
  136.2440  138.1400  106.7220 Cl  0  0  0  0  0  0  0  0  0  0  0  0
  137.6740  137.6260  108.9480 C   0  0  0  0  0  0  0  0  0  0  0  0
  2  1  1  1
  2  3  1  0
  3  4  1  0
  4  5  1  0
  4  6  1  0
  4  7  1  0
  2  8  1  0
  8  9  2  0
  8 10  1  0
 10 11  2  0
 11 12  1  0
 12 13  2  0
 13 14  1  0
 14 15  1  0
 14 16  2  0
 16 10  1  0
M  CHG  1   3   1
M  END
>  <enantiomer_intended>  (12) 
S

>  <enantiomer_from_3D>  (12) 
S

>  <form>  (12) 
protonated

>  <formal_charge>  (12) 
1

>  <receptor>  (12) 
8V8A

>  <receptor_state>  (12) 
desensitized

>  <search_region>  (12) 
midporeA

>  <seed>  (12) 
20240603

>  <vina_score_kcal_per_mol>  (12) 
-5.256

>  <location_class>  (12) 
pore_lumen

>  <centroid_axial_A>  (12) 
-29.45

>  <centroid_radial_A>  (12) 
0.89

>  <local_pore_radius_A>  (12) 
4.78

>  <radial_fraction>  (12) 
0.187

>  <m2_span_contact_fraction>  (12) 
0.909

>  <contacts_uniprot>  (12) 
E260; G259; I266; S263; T267

>  <contacts_chain_resid>  (12) 
A:SER240*; A:THR244*; C:GLY236; C:GLU237*; C:SER240*; D:GLU237*; D:SER240*; D:ILE243*; D:THR244*; E:SER240*; E:THR244*

>  <min_receptor_dist_A>  (12) 
3.39

>  <n_clashes_below_2p2A>  (12) 
0

>  <engine>  (12) 
AutoDock Vina 1.2.7

>  <caveat>  (12) 
modeled docking pose, NOT an experimental structure; score is not Ki/IC50/occupancy

$$$$
bupropion_R_protonated_8V82_outerporeA_seed20240601
     RDKit          3D

 16 16  0  0  0  0  0  0  0  0999 V2000
  129.5250  145.6150  138.2190 C   0  0  0  0  0  0  0  0  0  0  0  0
  128.2300  146.3280  137.8530 C   0  0  1  0  0  0  0  0  0  0  0  0
  127.6020  146.8340  139.1600 N   0  0  0  0  0  0  0  0  0  0  0  0
  126.8490  145.8740  140.0470 C   0  0  0  0  0  0  0  0  0  0  0  0
  126.6330  144.5460  139.3160 C   0  0  0  0  0  0  0  0  0  0  0  0
  125.4910  146.5290  140.3410 C   0  0  0  0  0  0  0  0  0  0  0  0
  127.6260  145.6870  141.3530 C   0  0  0  0  0  0  0  0  0  0  0  0
  128.4960  147.5480  136.9690 C   0  0  0  0  0  0  0  0  0  0  0  0
  128.7340  148.6230  137.5270 O   0  0  0  0  0  0  0  0  0  0  0  0
  128.4590  147.4480  135.4810 C   0  0  0  0  0  0  0  0  0  0  0  0
  127.9310  148.5320  134.7630 C   0  0  0  0  0  0  0  0  0  0  0  0
  127.8670  148.4950  133.3700 C   0  0  0  0  0  0  0  0  0  0  0  0
  128.3270  147.3740  132.6810 C   0  0  0  0  0  0  0  0  0  0  0  0
  128.8450  146.2950  133.3930 C   0  0  0  0  0  0  0  0  0  0  0  0
  129.4080  144.9050  132.5500 Cl  0  0  0  0  0  0  0  0  0  0  0  0
  128.9140  146.3210  134.7880 C   0  0  0  0  0  0  0  0  0  0  0  0
  2  1  1  1
  2  3  1  0
  3  4  1  0
  4  5  1  0
  4  6  1  0
  4  7  1  0
  2  8  1  0
  8  9  2  0
  8 10  1  0
 10 11  2  0
 11 12  1  0
 12 13  2  0
 13 14  1  0
 14 15  1  0
 14 16  2  0
 16 10  1  0
M  CHG  1   3   1
M  END
>  <enantiomer_intended>  (13) 
R

>  <enantiomer_from_3D>  (13) 
R

>  <form>  (13) 
protonated

>  <formal_charge>  (13) 
1

>  <receptor>  (13) 
8V82

>  <receptor_state>  (13) 
activated

>  <search_region>  (13) 
outerporeA

>  <seed>  (13) 
20240601

>  <vina_score_kcal_per_mol>  (13) 
-6.492

>  <location_class>  (13) 
lateral_interface

>  <centroid_axial_A>  (13) 
-8.74

>  <centroid_radial_A>  (13) 
13.21

>  <local_pore_radius_A>  (13) 
8.31

>  <radial_fraction>  (13) 
1.59

>  <m2_span_contact_fraction>  (13) 
0.545

>  <contacts_uniprot>  (13) 
A280; F275; L237; L277; L278; M276; N236; P240; V274; Y232; Y233

>  <contacts_chain_resid>  (13) 
B:MET253*; B:LEU254*; B:ALA257*; C:TYR209; C:TYR210; C:ASN213; C:LEU214; C:PRO217; C:VAL251*; C:PHE252*; C:LEU255*

>  <min_receptor_dist_A>  (13) 
3.14

>  <n_clashes_below_2p2A>  (13) 
0

>  <engine>  (13) 
AutoDock Vina 1.2.7

>  <caveat>  (13) 
modeled docking pose, NOT an experimental structure; score is not Ki/IC50/occupancy

$$$$
bupropion_R_protonated_8V82_outerporeA_seed20240602
     RDKit          3D

 16 16  0  0  0  0  0  0  0  0999 V2000
  128.7320  148.4910  136.9930 C   0  0  0  0  0  0  0  0  0  0  0  0
  128.6170  147.0320  136.5710 C   0  0  1  0  0  0  0  0  0  0  0  0
  129.6320  146.8020  135.4430 N   0  0  0  0  0  0  0  0  0  0  0  0
  129.1420  146.4610  134.0560 C   0  0  0  0  0  0  0  0  0  0  0  0
  128.8110  144.9690  133.9710 C   0  0  0  0  0  0  0  0  0  0  0  0
  130.2950  146.7910  133.0960 C   0  0  0  0  0  0  0  0  0  0  0  0
  127.9300  147.3350  133.7260 C   0  0  0  0  0  0  0  0  0  0  0  0
  128.9840  146.0890  137.7190 C   0  0  0  0  0  0  0  0  0  0  0  0
  130.1270  145.6230  137.7380 O   0  0  0  0  0  0  0  0  0  0  0  0
  127.9930  145.7330  138.7750 C   0  0  0  0  0  0  0  0  0  0  0  0
  126.6350  145.9610  138.5060 C   0  0  0  0  0  0  0  0  0  0  0  0
  125.6630  145.6500  139.4580 C   0  0  0  0  0  0  0  0  0  0  0  0
  126.0390  145.1130  140.6870 C   0  0  0  0  0  0  0  0  0  0  0  0
  127.3870  144.8920  140.9580 C   0  0  0  0  0  0  0  0  0  0  0  0
  127.8580  144.2350  142.4770 Cl  0  0  0  0  0  0  0  0  0  0  0  0
  128.3690  145.1990  140.0130 C   0  0  0  0  0  0  0  0  0  0  0  0
  2  1  1  1
  2  3  1  0
  3  4  1  0
  4  5  1  0
  4  6  1  0
  4  7  1  0
  2  8  1  0
  8  9  2  0
  8 10  1  0
 10 11  2  0
 11 12  1  0
 12 13  2  0
 13 14  1  0
 14 15  1  0
 14 16  2  0
 16 10  1  0
M  CHG  1   3   1
M  END
>  <enantiomer_intended>  (14) 
R

>  <enantiomer_from_3D>  (14) 
R

>  <form>  (14) 
protonated

>  <formal_charge>  (14) 
1

>  <receptor>  (14) 
8V82

>  <receptor_state>  (14) 
activated

>  <search_region>  (14) 
outerporeA

>  <seed>  (14) 
20240602

>  <vina_score_kcal_per_mol>  (14) 
-6.158

>  <location_class>  (14) 
lateral_interface

>  <centroid_axial_A>  (14) 
-7.97

>  <centroid_radial_A>  (14) 
12.63

>  <local_pore_radius_A>  (14) 
8.48

>  <radial_fraction>  (14) 
1.489

>  <m2_span_contact_fraction>  (14) 
0.6

>  <contacts_uniprot>  (14) 
A280; F275; I282; L237; L277; L278; M276; N236; T273; Y233

>  <contacts_chain_resid>  (14) 
B:THR250*; B:MET253*; B:LEU254*; B:ALA257*; C:TYR210; C:ASN213; C:LEU214; C:PHE252*; C:LEU255*; C:ILE259

>  <min_receptor_dist_A>  (14) 
2.84

>  <n_clashes_below_2p2A>  (14) 
0

>  <engine>  (14) 
AutoDock Vina 1.2.7

>  <caveat>  (14) 
modeled docking pose, NOT an experimental structure; score is not Ki/IC50/occupancy

$$$$
bupropion_R_protonated_8V82_outerporeA_seed20240603
     RDKit          3D

 16 16  0  0  0  0  0  0  0  0999 V2000
  129.1030  149.5510  137.0820 C   0  0  0  0  0  0  0  0  0  0  0  0
  128.7480  148.3290  136.2450 C   0  0  1  0  0  0  0  0  0  0  0  0
  127.5950  147.6060  136.9560 N   0  0  0  0  0  0  0  0  0  0  0  0
  127.8960  146.6520  138.0870 C   0  0  0  0  0  0  0  0  0  0  0  0
  129.2550  145.9860  137.8600 C   0  0  0  0  0  0  0  0  0  0  0  0
  126.7870  145.5900  138.0630 C   0  0  0  0  0  0  0  0  0  0  0  0
  127.8490  147.4180  139.4110 C   0  0  0  0  0  0  0  0  0  0  0  0
  128.2510  148.7300  134.8550 C   0  0  0  0  0  0  0  0  0  0  0  0
  127.6190  149.7860  134.7510 O   0  0  0  0  0  0  0  0  0  0  0  0
  128.5080  147.8710  133.6630 C   0  0  0  0  0  0  0  0  0  0  0  0
  127.9500  148.2650  132.4370 C   0  0  0  0  0  0  0  0  0  0  0  0
  128.1540  147.4990  131.2880 C   0  0  0  0  0  0  0  0  0  0  0  0
  128.9120  146.3320  131.3540 C   0  0  0  0  0  0  0  0  0  0  0  0
  129.4600  145.9370  132.5710 C   0  0  0  0  0  0  0  0  0  0  0  0
  130.3910  144.4930  132.6620 Cl  0  0  0  0  0  0  0  0  0  0  0  0
  129.2630  146.6950  133.7280 C   0  0  0  0  0  0  0  0  0  0  0  0
  2  1  1  1
  2  3  1  0
  3  4  1  0
  4  5  1  0
  4  6  1  0
  4  7  1  0
  2  8  1  0
  8  9  2  0
  8 10  1  0
 10 11  2  0
 11 12  1  0
 12 13  2  0
 13 14  1  0
 14 15  1  0
 14 16  2  0
 16 10  1  0
M  CHG  1   3   1
M  END
>  <enantiomer_intended>  (15) 
R

>  <enantiomer_from_3D>  (15) 
R

>  <form>  (15) 
protonated

>  <formal_charge>  (15) 
1

>  <receptor>  (15) 
8V82

>  <receptor_state>  (15) 
activated

>  <search_region>  (15) 
outerporeA

>  <seed>  (15) 
20240603

>  <vina_score_kcal_per_mol>  (15) 
-5.937

>  <location_class>  (15) 
lateral_interface

>  <centroid_axial_A>  (15) 
-10.42

>  <centroid_radial_A>  (15) 
13.31

>  <local_pore_radius_A>  (15) 
6.91

>  <radial_fraction>  (15) 
1.926

>  <m2_span_contact_fraction>  (15) 
0.583

>  <contacts_uniprot>  (15) 
A280; F275; I244; L237; L277; L278; M276; N236; P240; T273; V274; Y232

>  <contacts_chain_resid>  (15) 
B:THR250*; B:MET253*; B:LEU254*; B:ALA257*; C:TYR209; C:ASN213; C:LEU214; C:PRO217; C:ILE221; C:VAL251*; C:PHE252*; C:LEU255*

>  <min_receptor_dist_A>  (15) 
2.93

>  <n_clashes_below_2p2A>  (15) 
0

>  <engine>  (15) 
AutoDock Vina 1.2.7

>  <caveat>  (15) 
modeled docking pose, NOT an experimental structure; score is not Ki/IC50/occupancy

$$$$
bupropion_S_protonated_8V82_outerporeA_seed20240601
     RDKit          3D

 16 16  0  0  0  0  0  0  0  0999 V2000
  128.6460  128.8770  139.6950 C   0  0  0  0  0  0  0  0  0  0  0  0
  128.2830  130.3420  139.8900 C   0  0  2  0  0  0  0  0  0  0  0  0
  128.2880  130.6180  141.4010 N   0  0  0  0  0  0  0  0  0  0  0  0
  129.4040  131.4330  142.0070 C   0  0  0  0  0  0  0  0  0  0  0  0
  130.6270  130.5350  142.2070 C   0  0  0  0  0  0  0  0  0  0  0  0
  128.8920  131.9230  143.3690 C   0  0  0  0  0  0  0  0  0  0  0  0
  129.7190  132.6350  141.1110 C   0  0  0  0  0  0  0  0  0  0  0  0
  126.8730  130.6410  139.3730 C   0  0  0  0  0  0  0  0  0  0  0  0
  125.9210  130.3700  140.1110 O   0  0  0  0  0  0  0  0  0  0  0  0
  126.6540  131.2500  138.0310 C   0  0  0  0  0  0  0  0  0  0  0  0
  125.5600  132.1140  137.8730 C   0  0  0  0  0  0  0  0  0  0  0  0
  125.3050  132.7160  136.6390 C   0  0  0  0  0  0  0  0  0  0  0  0
  126.1450  132.4660  135.5550 C   0  0  0  0  0  0  0  0  0  0  0  0
  127.2350  131.6150  135.7130 C   0  0  0  0  0  0  0  0  0  0  0  0
  128.2800  131.3060  134.3820 Cl  0  0  0  0  0  0  0  0  0  0  0  0
  127.5000  131.0060  136.9440 C   0  0  0  0  0  0  0  0  0  0  0  0
  2  1  1  1
  2  3  1  0
  3  4  1  0
  4  5  1  0
  4  6  1  0
  4  7  1  0
  2  8  1  0
  8  9  2  0
  8 10  1  0
 10 11  2  0
 11 12  1  0
 12 13  2  0
 13 14  1  0
 14 15  1  0
 14 16  2  0
 16 10  1  0
M  CHG  1   3   1
M  END
>  <enantiomer_intended>  (16) 
S

>  <enantiomer_from_3D>  (16) 
S

>  <form>  (16) 
protonated

>  <formal_charge>  (16) 
1

>  <receptor>  (16) 
8V82

>  <receptor_state>  (16) 
activated

>  <search_region>  (16) 
outerporeA

>  <seed>  (16) 
20240601

>  <vina_score_kcal_per_mol>  (16) 
-5.806

>  <location_class>  (16) 
lateral_interface

>  <centroid_axial_A>  (16) 
-6.46

>  <centroid_radial_A>  (16) 
12.47

>  <local_pore_radius_A>  (16) 
6.23

>  <radial_fraction>  (16) 
2.002

>  <m2_span_contact_fraction>  (16) 
0.545

>  <contacts_uniprot>  (16) 
A280; E281; F275; I282; K68; L237; L277; L278; M276; N236; Y232

>  <contacts_chain_resid>  (16) 
C:LYS45; C:MET253*; C:LEU254*; C:ALA257*; D:TYR209; D:ASN213; D:LEU214; D:PHE252*; D:LEU255*; D:GLU258*; D:ILE259

>  <min_receptor_dist_A>  (16) 
3.04

>  <n_clashes_below_2p2A>  (16) 
0

>  <engine>  (16) 
AutoDock Vina 1.2.7

>  <caveat>  (16) 
modeled docking pose, NOT an experimental structure; score is not Ki/IC50/occupancy

$$$$
bupropion_S_protonated_8V82_outerporeA_seed20240602
     RDKit          3D

 16 16  0  0  0  0  0  0  0  0999 V2000
  126.1740  144.6140  139.6480 C   0  0  0  0  0  0  0  0  0  0  0  0
  127.5560  145.2230  139.8420 C   0  0  2  0  0  0  0  0  0  0  0  0
  127.8300  145.2670  141.3520 N   0  0  0  0  0  0  0  0  0  0  0  0
  128.9530  144.4420  141.9320 C   0  0  0  0  0  0  0  0  0  0  0  0
  130.1270  144.4380  140.9500 C   0  0  0  0  0  0  0  0  0  0  0  0
  128.4060  143.0160  142.0910 C   0  0  0  0  0  0  0  0  0  0  0  0
  129.3550  144.9970  143.3010 C   0  0  0  0  0  0  0  0  0  0  0  0
  127.6080  146.6620  139.3230 C   0  0  0  0  0  0  0  0  0  0  0  0
  127.2510  147.5630  140.0890 O   0  0  0  0  0  0  0  0  0  0  0  0
  128.0850  146.9720  137.9460 C   0  0  0  0  0  0  0  0  0  0  0  0
  128.5580  148.2680  137.6900 C   0  0  0  0  0  0  0  0  0  0  0  0
  129.0200  148.6160  136.4190 C   0  0  0  0  0  0  0  0  0  0  0  0
  129.0200  147.6710  135.3950 C   0  0  0  0  0  0  0  0  0  0  0  0
  128.5580  146.3820  135.6500 C   0  0  0  0  0  0  0  0  0  0  0  0
  128.5600  145.2090  134.3920 Cl  0  0  0  0  0  0  0  0  0  0  0  0
  128.0930  146.0230  136.9180 C   0  0  0  0  0  0  0  0  0  0  0  0
  2  1  1  1
  2  3  1  0
  3  4  1  0
  4  5  1  0
  4  6  1  0
  4  7  1  0
  2  8  1  0
  8  9  2  0
  8 10  1  0
 10 11  2  0
 11 12  1  0
 12 13  2  0
 13 14  1  0
 14 15  1  0
 14 16  2  0
 16 10  1  0
M  CHG  1   3   1
M  END
>  <enantiomer_intended>  (17) 
S

>  <enantiomer_from_3D>  (17) 
S

>  <form>  (17) 
protonated

>  <formal_charge>  (17) 
1

>  <receptor>  (17) 
8V82

>  <receptor_state>  (17) 
activated

>  <search_region>  (17) 
outerporeA

>  <seed>  (17) 
20240602

>  <vina_score_kcal_per_mol>  (17) 
-5.679

>  <location_class>  (17) 
lateral_interface

>  <centroid_axial_A>  (17) 
-6.55

>  <centroid_radial_A>  (17) 
12.55

>  <local_pore_radius_A>  (17) 
6.23

>  <radial_fraction>  (17) 
2.015

>  <m2_span_contact_fraction>  (17) 
0.545

>  <contacts_uniprot>  (17) 
A280; E281; F275; I282; K68; L237; L277; L278; M276; N236; Y232

>  <contacts_chain_resid>  (17) 
B:LYS45; B:MET253*; B:LEU254*; B:ALA257*; C:TYR209; C:ASN213; C:LEU214; C:PHE252*; C:LEU255*; C:GLU258*; C:ILE259

>  <min_receptor_dist_A>  (17) 
2.91

>  <n_clashes_below_2p2A>  (17) 
0

>  <engine>  (17) 
AutoDock Vina 1.2.7

>  <caveat>  (17) 
modeled docking pose, NOT an experimental structure; score is not Ki/IC50/occupancy

$$$$
bupropion_S_protonated_8V82_outerporeA_seed20240603
     RDKit          3D

 16 16  0  0  0  0  0  0  0  0999 V2000
  128.3690  128.8830  139.5130 C   0  0  0  0  0  0  0  0  0  0  0  0
  128.1190  130.3610  139.7750 C   0  0  2  0  0  0  0  0  0  0  0  0
  128.1250  130.5640  141.2980 N   0  0  0  0  0  0  0  0  0  0  0  0
  129.2580  131.3210  141.9460 C   0  0  0  0  0  0  0  0  0  0  0  0
  130.4680  130.3920  142.0770 C   0  0  0  0  0  0  0  0  0  0  0  0
  128.7640  131.7270  143.3420 C   0  0  0  0  0  0  0  0  0  0  0  0
  129.5850  132.5730  141.1290 C   0  0  0  0  0  0  0  0  0  0  0  0
  126.7450  130.7950  139.2590 C   0  0  0  0  0  0  0  0  0  0  0  0
  125.7800  130.6760  140.0210 O   0  0  0  0  0  0  0  0  0  0  0  0
  126.5740  131.3540  137.8880 C   0  0  0  0  0  0  0  0  0  0  0  0
  125.4690  132.1860  137.6510 C   0  0  0  0  0  0  0  0  0  0  0  0
  125.2580  132.7410  136.3870 C   0  0  0  0  0  0  0  0  0  0  0  0
  126.1530  132.4750  135.3520 C   0  0  0  0  0  0  0  0  0  0  0  0
  127.2530  131.6570  135.5880 C   0  0  0  0  0  0  0  0  0  0  0  0
  128.3650  131.3290  134.3170 Cl  0  0  0  0  0  0  0  0  0  0  0  0
  127.4740  131.0950  136.8490 C   0  0  0  0  0  0  0  0  0  0  0  0
  2  1  1  1
  2  3  1  0
  3  4  1  0
  4  5  1  0
  4  6  1  0
  4  7  1  0
  2  8  1  0
  8  9  2  0
  8 10  1  0
 10 11  2  0
 11 12  1  0
 12 13  2  0
 13 14  1  0
 14 15  1  0
 14 16  2  0
 16 10  1  0
M  CHG  1   3   1
M  END
>  <enantiomer_intended>  (18) 
S

>  <enantiomer_from_3D>  (18) 
S

>  <form>  (18) 
protonated

>  <formal_charge>  (18) 
1

>  <receptor>  (18) 
8V82

>  <receptor_state>  (18) 
activated

>  <search_region>  (18) 
outerporeA

>  <seed>  (18) 
20240603

>  <vina_score_kcal_per_mol>  (18) 
-5.825

>  <location_class>  (18) 
lateral_interface

>  <centroid_axial_A>  (18) 
-6.58

>  <centroid_radial_A>  (18) 
12.54

>  <local_pore_radius_A>  (18) 
6.23

>  <radial_fraction>  (18) 
2.013

>  <m2_span_contact_fraction>  (18) 
0.545

>  <contacts_uniprot>  (18) 
A280; E281; F275; I282; K68; L237; L277; L278; M276; N236; Y232

>  <contacts_chain_resid>  (18) 
C:LYS45; C:MET253*; C:LEU254*; C:ALA257*; D:TYR209; D:ASN213; D:LEU214; D:PHE252*; D:LEU255*; D:GLU258*; D:ILE259

>  <min_receptor_dist_A>  (18) 
2.98

>  <n_clashes_below_2p2A>  (18) 
0

>  <engine>  (18) 
AutoDock Vina 1.2.7

>  <caveat>  (18) 
modeled docking pose, NOT an experimental structure; score is not Ki/IC50/occupancy

$$$$
bupropion_R_protonated_8V8A_outerporeA_seed20240601
     RDKit          3D

 16 16  0  0  0  0  0  0  0  0999 V2000
  140.5820  135.1900  127.0990 C   0  0  0  0  0  0  0  0  0  0  0  0
  140.2760  134.4920  125.7810 C   0  0  1  0  0  0  0  0  0  0  0  0
  141.5340  133.7120  125.3740 N   0  0  0  0  0  0  0  0  0  0  0  0
  142.1670  133.9670  124.0270 C   0  0  0  0  0  0  0  0  0  0  0  0
  143.1140  132.8190  123.6710 C   0  0  0  0  0  0  0  0  0  0  0  0
  142.9650  135.2720  124.1630 C   0  0  0  0  0  0  0  0  0  0  0  0
  141.0640  134.1430  122.9820 C   0  0  0  0  0  0  0  0  0  0  0  0
  139.1390  133.4800  125.9360 C   0  0  0  0  0  0  0  0  0  0  0  0
  139.4380  132.3180  126.2290 O   0  0  0  0  0  0  0  0  0  0  0  0
  137.7160  133.8760  125.7300 C   0  0  0  0  0  0  0  0  0  0  0  0
  137.0990  134.6500  126.7250 C   0  0  0  0  0  0  0  0  0  0  0  0
  135.7680  135.0480  126.5880 C   0  0  0  0  0  0  0  0  0  0  0  0
  135.0410  134.6730  125.4600 C   0  0  0  0  0  0  0  0  0  0  0  0
  135.6500  133.9000  124.4760 C   0  0  0  0  0  0  0  0  0  0  0  0
  134.7570  133.4280  123.0830 Cl  0  0  0  0  0  0  0  0  0  0  0  0
  136.9820  133.4960  124.6010 C   0  0  0  0  0  0  0  0  0  0  0  0
  2  1  1  1
  2  3  1  0
  3  4  1  0
  4  5  1  0
  4  6  1  0
  4  7  1  0
  2  8  1  0
  8  9  2  0
  8 10  1  0
 10 11  2  0
 11 12  1  0
 12 13  2  0
 13 14  1  0
 14 15  1  0
 14 16  2  0
 16 10  1  0
M  CHG  1   3   1
M  END
>  <enantiomer_intended>  (19) 
R

>  <enantiomer_from_3D>  (19) 
R

>  <form>  (19) 
protonated

>  <formal_charge>  (19) 
1

>  <receptor>  (19) 
8V8A

>  <receptor_state>  (19) 
desensitized

>  <search_region>  (19) 
outerporeA

>  <seed>  (19) 
20240601

>  <vina_score_kcal_per_mol>  (19) 
-5.240

>  <location_class>  (19) 
pore_lumen

>  <centroid_axial_A>  (19) 
-15.06

>  <centroid_radial_A>  (19) 
4.58

>  <local_pore_radius_A>  (19) 
8.09

>  <radial_fraction>  (19) 
0.566

>  <m2_span_contact_fraction>  (19) 
1.0

>  <contacts_uniprot>  (19) 
L270; L277; S271; T273; V274

>  <contacts_chain_resid>  (19) 
C:LEU247*; C:THR250*; C:LEU254*; D:LEU247*; D:SER248*; D:THR250*; D:VAL251*; D:LEU254*; E:SER248*; E:VAL251*

>  <min_receptor_dist_A>  (19) 
2.70

>  <n_clashes_below_2p2A>  (19) 
0

>  <engine>  (19) 
AutoDock Vina 1.2.7

>  <caveat>  (19) 
modeled docking pose, NOT an experimental structure; score is not Ki/IC50/occupancy

$$$$
bupropion_R_protonated_8V8A_outerporeA_seed20240602
     RDKit          3D

 16 16  0  0  0  0  0  0  0  0999 V2000
  142.4220  139.4970  127.0420 C   0  0  0  0  0  0  0  0  0  0  0  0
  143.0370  138.9770  125.7500 C   0  0  1  0  0  0  0  0  0  0  0  0
  144.1780  139.9310  125.3700 N   0  0  0  0  0  0  0  0  0  0  0  0
  144.1410  140.6490  124.0430 C   0  0  0  0  0  0  0  0  0  0  0  0
  145.5280  141.2030  123.7100 C   0  0  0  0  0  0  0  0  0  0  0  0
  143.1460  141.8080  124.2050 C   0  0  0  0  0  0  0  0  0  0  0  0
  143.6380  139.6840  122.9670 C   0  0  0  0  0  0  0  0  0  0  0  0
  143.6450  137.5860  125.9410 C   0  0  0  0  0  0  0  0  0  0  0  0
  144.8370  137.5170  126.2580 O   0  0  0  0  0  0  0  0  0  0  0  0
  142.8330  136.3520  125.7420 C   0  0  0  0  0  0  0  0  0  0  0  0
  141.9300  135.9890  126.7530 C   0  0  0  0  0  0  0  0  0  0  0  0
  141.1450  134.8420  126.6240 C   0  0  0  0  0  0  0  0  0  0  0  0
  141.2590  134.0460  125.4870 C   0  0  0  0  0  0  0  0  0  0  0  0
  142.1590  134.4000  124.4860 C   0  0  0  0  0  0  0  0  0  0  0  0
  142.3090  133.4170  123.0820 Cl  0  0  0  0  0  0  0  0  0  0  0  0
  142.9500  135.5460  124.6040 C   0  0  0  0  0  0  0  0  0  0  0  0
  2  1  1  1
  2  3  1  0
  3  4  1  0
  4  5  1  0
  4  6  1  0
  4  7  1  0
  2  8  1  0
  8  9  2  0
  8 10  1  0
 10 11  2  0
 11 12  1  0
 12 13  2  0
 13 14  1  0
 14 15  1  0
 14 16  2  0
 16 10  1  0
M  CHG  1   3   1
M  END
>  <enantiomer_intended>  (20) 
R

>  <enantiomer_from_3D>  (20) 
R

>  <form>  (20) 
protonated

>  <formal_charge>  (20) 
1

>  <receptor>  (20) 
8V8A

>  <receptor_state>  (20) 
desensitized

>  <search_region>  (20) 
outerporeA

>  <seed>  (20) 
20240602

>  <vina_score_kcal_per_mol>  (20) 
-5.273

>  <location_class>  (20) 
pore_lumen

>  <centroid_axial_A>  (20) 
-15.05

>  <centroid_radial_A>  (20) 
4.58

>  <local_pore_radius_A>  (20) 
8.09

>  <radial_fraction>  (20) 
0.566

>  <m2_span_contact_fraction>  (20) 
1.0

>  <contacts_uniprot>  (20) 
L270; L277; S271; T273; V274

>  <contacts_chain_resid>  (20) 
A:SER248*; A:VAL251*; D:LEU247*; D:THR250*; D:LEU254*; E:LEU247*; E:SER248*; E:THR250*; E:VAL251*; E:LEU254*

>  <min_receptor_dist_A>  (20) 
2.70

>  <n_clashes_below_2p2A>  (20) 
0

>  <engine>  (20) 
AutoDock Vina 1.2.7

>  <caveat>  (20) 
modeled docking pose, NOT an experimental structure; score is not Ki/IC50/occupancy

$$$$
bupropion_R_protonated_8V8A_outerporeA_seed20240603
     RDKit          3D

 16 16  0  0  0  0  0  0  0  0999 V2000
  134.9700  140.1150  127.0750 C   0  0  0  0  0  0  0  0  0  0  0  0
  134.7930  140.8930  125.7780 C   0  0  1  0  0  0  0  0  0  0  0  0
  133.3140  140.7880  125.3800 N   0  0  0  0  0  0  0  0  0  0  0  0
  132.9380  140.1530  124.0630 C   0  0  0  0  0  0  0  0  0  0  0  0
  133.0550  138.6300  124.1650 C   0  0  0  0  0  0  0  0  0  0  0  0
  133.9410  140.6810  123.0260 C   0  0  0  0  0  0  0  0  0  0  0  0
  131.5220  140.5920  123.6820 C   0  0  0  0  0  0  0  0  0  0  0  0
  135.1110  142.3770  125.9710 C   0  0  0  0  0  0  0  0  0  0  0  0
  134.1860  143.1280  126.2950 O   0  0  0  0  0  0  0  0  0  0  0  0
  136.4900  142.9070  125.7630 C   0  0  0  0  0  0  0  0  0  0  0  0
  137.4570  142.6210  126.7390 C   0  0  0  0  0  0  0  0  0  0  0  0
  138.7640  143.0920  126.6000 C   0  0  0  0  0  0  0  0  0  0  0  0
  139.1140  143.8560  125.4880 C   0  0  0  0  0  0  0  0  0  0  0  0
  138.1540  144.1460  124.5230 C   0  0  0  0  0  0  0  0  0  0  0  0
  138.5780  145.0940  123.1510 Cl  0  0  0  0  0  0  0  0  0  0  0  0
  136.8430  143.6790  124.6510 C   0  0  0  0  0  0  0  0  0  0  0  0
  2  1  1  1
  2  3  1  0
  3  4  1  0
  4  5  1  0
  4  6  1  0
  4  7  1  0
  2  8  1  0
  8  9  2  0
  8 10  1  0
 10 11  2  0
 11 12  1  0
 12 13  2  0
 13 14  1  0
 14 15  1  0
 14 16  2  0
 16 10  1  0
M  CHG  1   3   1
M  END
>  <enantiomer_intended>  (21) 
R

>  <enantiomer_from_3D>  (21) 
R

>  <form>  (21) 
protonated

>  <formal_charge>  (21) 
1

>  <receptor>  (21) 
8V8A

>  <receptor_state>  (21) 
desensitized

>  <search_region>  (21) 
outerporeA

>  <seed>  (21) 
20240603

>  <vina_score_kcal_per_mol>  (21) 
-5.255

>  <location_class>  (21) 
pore_lumen

>  <centroid_axial_A>  (21) 
-15.04

>  <centroid_radial_A>  (21) 
4.59

>  <local_pore_radius_A>  (21) 
8.09

>  <radial_fraction>  (21) 
0.567

>  <m2_span_contact_fraction>  (21) 
1.0

>  <contacts_uniprot>  (21) 
L270; L277; S271; T273; V274

>  <contacts_chain_resid>  (21) 
A:LEU247*; A:THR250*; A:LEU254*; B:LEU247*; B:SER248*; B:THR250*; B:VAL251*; B:LEU254*; C:SER248*; C:VAL251*

>  <min_receptor_dist_A>  (21) 
2.72

>  <n_clashes_below_2p2A>  (21) 
0

>  <engine>  (21) 
AutoDock Vina 1.2.7

>  <caveat>  (21) 
modeled docking pose, NOT an experimental structure; score is not Ki/IC50/occupancy

$$$$
bupropion_S_protonated_8V8A_outerporeA_seed20240601
     RDKit          3D

 16 16  0  0  0  0  0  0  0  0999 V2000
  141.1940  141.9230  122.9610 C   0  0  0  0  0  0  0  0  0  0  0  0
  140.5760  142.5190  124.2170 C   0  0  2  0  0  0  0  0  0  0  0  0
  139.9810  143.8820  123.8330 N   0  0  0  0  0  0  0  0  0  0  0  0
  138.5270  144.1680  124.1170 C   0  0  0  0  0  0  0  0  0  0  0  0
  138.2610  145.6600  123.9020 C   0  0  0  0  0  0  0  0  0  0  0  0
  138.2940  143.8080  125.5910 C   0  0  0  0  0  0  0  0  0  0  0  0
  137.6390  143.2960  123.2250 C   0  0  0  0  0  0  0  0  0  0  0  0
  141.6330  142.7670  125.2960 C   0  0  0  0  0  0  0  0  0  0  0  0
  142.3460  143.7690  125.1830 O   0  0  0  0  0  0  0  0  0  0  0  0
  141.7920  141.8400  126.4530 C   0  0  0  0  0  0  0  0  0  0  0  0
  142.2410  140.5360  126.1920 C   0  0  0  0  0  0  0  0  0  0  0  0
  142.4110  139.6240  127.2360 C   0  0  0  0  0  0  0  0  0  0  0  0
  142.1390  140.0090  128.5480 C   0  0  0  0  0  0  0  0  0  0  0  0
  141.7000  141.3040  128.8080 C   0  0  0  0  0  0  0  0  0  0  0  0
  141.3690  141.7870  130.4250 Cl  0  0  0  0  0  0  0  0  0  0  0  0
  141.5260  142.2250  127.7710 C   0  0  0  0  0  0  0  0  0  0  0  0
  2  1  1  6
  2  3  1  0
  3  4  1  0
  4  5  1  0
  4  6  1  0
  4  7  1  0
  2  8  1  0
  8  9  2  0
  8 10  1  0
 10 11  2  0
 11 12  1  0
 12 13  2  0
 13 14  1  0
 14 15  1  0
 14 16  2  0
 16 10  1  0
M  CHG  1   3   1
M  END
>  <enantiomer_intended>  (22) 
S

>  <enantiomer_from_3D>  (22) 
S

>  <form>  (22) 
protonated

>  <formal_charge>  (22) 
1

>  <receptor>  (22) 
8V8A

>  <receptor_state>  (22) 
desensitized

>  <search_region>  (22) 
outerporeA

>  <seed>  (22) 
20240601

>  <vina_score_kcal_per_mol>  (22) 
-4.937

>  <location_class>  (22) 
pore_lumen

>  <centroid_axial_A>  (22) 
-14.32

>  <centroid_radial_A>  (22) 
4.40

>  <local_pore_radius_A>  (22) 
8.09

>  <radial_fraction>  (22) 
0.543

>  <m2_span_contact_fraction>  (22) 
1.0

>  <contacts_uniprot>  (22) 
L270; L277; S271; T273; V274

>  <contacts_chain_resid>  (22) 
A:LEU247*; A:SER248*; A:THR250*; A:VAL251*; A:LEU254*; B:SER248*; B:VAL251*; E:LEU254*

>  <min_receptor_dist_A>  (22) 
2.76

>  <n_clashes_below_2p2A>  (22) 
0

>  <engine>  (22) 
AutoDock Vina 1.2.7

>  <caveat>  (22) 
modeled docking pose, NOT an experimental structure; score is not Ki/IC50/occupancy

$$$$
bupropion_S_protonated_8V8A_outerporeA_seed20240602
     RDKit          3D

 16 16  0  0  0  0  0  0  0  0999 V2000
  140.4700  141.6190  123.1070 C   0  0  0  0  0  0  0  0  0  0  0  0
  140.1800  142.5520  124.2740 C   0  0  2  0  0  0  0  0  0  0  0  0
  139.7190  143.8930  123.6860 N   0  0  0  0  0  0  0  0  0  0  0  0
  138.3070  144.3680  123.9270 C   0  0  0  0  0  0  0  0  0  0  0  0
  138.2590  145.8900  123.7730 C   0  0  0  0  0  0  0  0  0  0  0  0
  137.9610  143.9820  125.3720 C   0  0  0  0  0  0  0  0  0  0  0  0
  137.3480  143.6660  122.9610 C   0  0  0  0  0  0  0  0  0  0  0  0
  141.4420  142.8210  125.0980 C   0  0  0  0  0  0  0  0  0  0  0  0
  141.5020  143.8810  125.7300 O   0  0  0  0  0  0  0  0  0  0  0  0
  142.5580  141.8340  125.1500 C   0  0  0  0  0  0  0  0  0  0  0  0
  142.4890  140.8150  126.1120 C   0  0  0  0  0  0  0  0  0  0  0  0
  143.5040  139.8600  126.2060 C   0  0  0  0  0  0  0  0  0  0  0  0
  144.5920  139.9130  125.3370 C   0  0  0  0  0  0  0  0  0  0  0  0
  144.6580  140.9190  124.3780 C   0  0  0  0  0  0  0  0  0  0  0  0
  145.9950  140.9860  123.2980 Cl  0  0  0  0  0  0  0  0  0  0  0  0
  143.6480  141.8800  124.2740 C   0  0  0  0  0  0  0  0  0  0  0  0
  2  1  1  6
  2  3  1  0
  3  4  1  0
  4  5  1  0
  4  6  1  0
  4  7  1  0
  2  8  1  0
  8  9  2  0
  8 10  1  0
 10 11  2  0
 11 12  1  0
 12 13  2  0
 13 14  1  0
 14 15  1  0
 14 16  2  0
 16 10  1  0
M  CHG  1   3   1
M  END
>  <enantiomer_intended>  (23) 
S

>  <enantiomer_from_3D>  (23) 
S

>  <form>  (23) 
protonated

>  <formal_charge>  (23) 
1

>  <receptor>  (23) 
8V8A

>  <receptor_state>  (23) 
desensitized

>  <search_region>  (23) 
outerporeA

>  <seed>  (23) 
20240602

>  <vina_score_kcal_per_mol>  (23) 
-5.134

>  <location_class>  (23) 
pore_lumen

>  <centroid_axial_A>  (23) 
-15.64

>  <centroid_radial_A>  (23) 
4.75

>  <local_pore_radius_A>  (23) 
8.25

>  <radial_fraction>  (23) 
0.576

>  <m2_span_contact_fraction>  (23) 
1.0

>  <contacts_uniprot>  (23) 
L270; L277; S271; T273; V274

>  <contacts_chain_resid>  (23) 
A:LEU247*; A:SER248*; A:THR250*; A:VAL251*; A:LEU254*; B:SER248*; B:VAL251*; E:LEU247*; E:THR250*; E:LEU254*

>  <min_receptor_dist_A>  (23) 
2.70

>  <n_clashes_below_2p2A>  (23) 
0

>  <engine>  (23) 
AutoDock Vina 1.2.7

>  <caveat>  (23) 
modeled docking pose, NOT an experimental structure; score is not Ki/IC50/occupancy

$$$$
bupropion_S_protonated_8V8A_outerporeA_seed20240603
     RDKit          3D

 16 16  0  0  0  0  0  0  0  0999 V2000
  129.7130  127.7290  133.7760 C   0  0  0  0  0  0  0  0  0  0  0  0
  130.9870  128.4540  133.3650 C   0  0  2  0  0  0  0  0  0  0  0  0
  131.5760  129.0970  134.6290 N   0  0  0  0  0  0  0  0  0  0  0  0
  132.3150  128.2400  135.6280 C   0  0  0  0  0  0  0  0  0  0  0  0
  131.3640  127.8680  136.7670 C   0  0  0  0  0  0  0  0  0  0  0  0
  133.4640  129.1010  136.1710 C   0  0  0  0  0  0  0  0  0  0  0  0
  132.8840  127.0000  134.9320 C   0  0  0  0  0  0  0  0  0  0  0  0
  130.6910  129.5810  132.3720 C   0  0  0  0  0  0  0  0  0  0  0  0
  131.0530  130.7230  132.6720 O   0  0  0  0  0  0  0  0  0  0  0  0
  130.0020  129.3110  131.0780 C   0  0  0  0  0  0  0  0  0  0  0  0
  130.7410  129.4640  129.8950 C   0  0  0  0  0  0  0  0  0  0  0  0
  130.1490  129.2230  128.6540 C   0  0  0  0  0  0  0  0  0  0  0  0
  128.8160  128.8210  128.5840 C   0  0  0  0  0  0  0  0  0  0  0  0
  128.0840  128.6620  129.7570 C   0  0  0  0  0  0  0  0  0  0  0  0
  126.4410  128.1600  129.6790 Cl  0  0  0  0  0  0  0  0  0  0  0  0
  128.6670  128.9000  131.0060 C   0  0  0  0  0  0  0  0  0  0  0  0
  2  1  1  1
  2  3  1  0
  3  4  1  0
  4  5  1  0
  4  6  1  0
  4  7  1  0
  2  8  1  0
  8  9  2  0
  8 10  1  0
 10 11  2  0
 11 12  1  0
 12 13  2  0
 13 14  1  0
 14 15  1  0
 14 16  2  0
 16 10  1  0
M  CHG  1   3   1
M  END
>  <enantiomer_intended>  (24) 
S

>  <enantiomer_from_3D>  (24) 
S

>  <form>  (24) 
protonated

>  <formal_charge>  (24) 
1

>  <receptor>  (24) 
8V8A

>  <receptor_state>  (24) 
desensitized

>  <search_region>  (24) 
outerporeA

>  <seed>  (24) 
20240603

>  <vina_score_kcal_per_mol>  (24) 
-5.551

>  <location_class>  (24) 
lateral_interface

>  <centroid_axial_A>  (24) 
-7.75

>  <centroid_radial_A>  (24) 
12.78

>  <local_pore_radius_A>  (24) 
6.49

>  <radial_fraction>  (24) 
1.969

>  <m2_span_contact_fraction>  (24) 
0.455

>  <contacts_uniprot>  (24) 
A280; F275; I282; L235; L237; L277; L278; M276; N236; Y232; Y233

>  <contacts_chain_resid>  (24) 
C:MET253*; C:LEU254*; C:ALA257*; D:TYR209; D:TYR210; D:LEU212; D:ASN213; D:LEU214; D:PHE252*; D:LEU255*; D:ILE259

>  <min_receptor_dist_A>  (24) 
2.91

>  <n_clashes_below_2p2A>  (24) 
0

>  <engine>  (24) 
AutoDock Vina 1.2.7

>  <caveat>  (24) 
modeled docking pose, NOT an experimental structure; score is not Ki/IC50/occupancy

$$$$
